plots/csv/rotor_angle_dev_bus04_julia.csv
t_s,rotor_angle_dev_rad,bus_voltage_angle_dev_rad,angle_source,angle_is_exact_bus_voltage
0.0,0.0,0.0,Vmag_get_voltage_magnitude_series__angle_get_voltage_angle_series,true
0.01,-1.2628786905111177e-16,-1.2628786905111177e-16,Vmag_get_voltage_magnitude_series__angle_get_voltage_angle_series,true
0.02,-3.275157922644223e-16,-3.275157922644223e-16,Vmag_get_voltage_magnitude_series__angle_get_voltage_angle_series,true
0.03,-2.5812685322534773e-16,-2.5812685322534773e-16,Vmag_get_voltage_magnitude_series__angle_get_voltage_angle_series,true
0.04,-2.8171909249864186e-16,-2.8171909249864186e-16,Vmag_get_voltage_magnitude_series__angle_get_voltage_angle_series,true
0.05,-1.4155343563971147e-16,-1.4155343563971147e-16,Vmag_get_voltage_magnitude_series__angle_get_voltage_angle_series,true
0.06,-2.2620794126736826e-16,-2.2620794126736826e-16,Vmag_get_voltage_magnitude_series__angle_get_voltage_angle_series,true
0.07,-1.623701173514396e-16,-1.623701173514396e-16,Vmag_get_voltage_magnitude_series__angle_get_voltage_angle_series,true
0.08,-7.216449660065094e-17,-7.216449660065094e-17,Vmag_get_voltage_magnitude_series__angle_get_voltage_angle_series,true
0.09,-7.355227538142713e-17,-7.355227538142713e-17,Vmag_get_voltage_magnitude_series__angle_get_voltage_angle_series,true
0.1,-1.3183898417423734e-16,-1.3183898417423734e-16,Vmag_get_voltage_magnitude_series__angle_get_voltage_angle_series,true
0.11,-0.001407904912676715,-0.001407904912676715,Vmag_get_voltage_magnitude_series__angle_get_voltage_angle_series,true
0.12,-0.0015134491213734625,-0.0015134491213734625,Vmag_get_voltage_magnitude_series__angle_get_voltage_angle_series,true
0.13,-0.0015984733960562045,-0.0015984733960562045,Vmag_get_voltage_magnitude_series__angle_get_voltage_angle_series,true
0.14,-0.001753077144856516,-0.001753077144856516,Vmag_get_voltage_magnitude_series__angle_get_voltage_angle_series,true
0.15,-0.0018762400117269145,-0.0018762400117269145,Vmag_get_voltage_magnitude_series__angle_get_voltage_angle_series,true
0.16,-0.002033791267091027,-0.002033791267091027,Vmag_get_voltage_magnitude_series__angle_get_voltage_angle_series,true
0.17,-0.002203715214538375,-0.002203715214538375,Vmag_get_voltage_magnitude_series__angle_get_voltage_angle_series,true
0.18,-0.002391197803108836,-0.002391197803108836,Vmag_get_voltage_magnitude_series__angle_get_voltage_angle_series,true
0.19,-0.0025922993897403226,-0.0025922993897403226,Vmag_get_voltage_magnitude_series__angle_get_voltage_angle_series,true
0.2,-0.0028079739090149177,-0.0028079739090149177,Vmag_get_voltage_magnitude_series__angle_get_voltage_angle_series,true
0.21,-0.00303660953825892,-0.00303660953825892,Vmag_get_voltage_magnitude_series__angle_get_voltage_angle_series,true
0.22,-0.0032776033979871493,-0.0032776033979871493,Vmag_get_voltage_magnitude_series__angle_get_voltage_angle_series,true
0.23,-0.003530028652237407,-0.003530028652237407,Vmag_get_voltage_magnitude_series__angle_get_voltage_angle_series,true
0.24,-0.003793149170864021,-0.003793149170864021,Vmag_get_voltage_magnitude_series__angle_get_voltage_angle_series,true
0.25,-0.004066215871387589,-0.004066215871387589,Vmag_get_voltage_magnitude_series__angle_get_voltage_angle_series,true
0.26,-0.004348545166678007,-0.004348545166678007,Vmag_get_voltage_magnitude_series__angle_get_voltage_angle_series,true
0.27,-0.004639491550127018,-0.004639491550127018,Vmag_get_voltage_magnitude_series__angle_get_voltage_angle_series,true
0.28,-0.004938446670521665,-0.004938446670521665,Vmag_get_voltage_magnitude_series__angle_get_voltage_angle_series,true
0.29,-0.005244831758796901,-0.005244831758796901,Vmag_get_voltage_magnitude_series__angle_get_voltage_angle_series,true
0.3,-0.005558089454413126,-0.005558089454413126,Vmag_get_voltage_magnitude_series__angle_get_voltage_angle_series,true
0.31,-0.005877677250966153,-0.005877677250966153,Vmag_get_voltage_magnitude_series__angle_get_voltage_angle_series,true
0.32,-0.006203060944190995,-0.006203060944190995,Vmag_get_voltage_magnitude_series__angle_get_voltage_angle_series,true
0.33,-0.006533709366806965,-0.006533709366806965,Vmag_get_voltage_magnitude_series__angle_get_voltage_angle_series,true
0.34,-0.0068690898402770355,-0.0068690898402770355,Vmag_get_voltage_magnitude_series__angle_get_voltage_angle_series,true
0.35,-0.007208664949762036,-0.007208664949762036,Vmag_get_voltage_magnitude_series__angle_get_voltage_angle_series,true
0.36,-0.007551890340909063,-0.007551890340909063,Vmag_get_voltage_magnitude_series__angle_get_voltage_angle_series,true
0.37,-0.007898213586333414,-0.007898213586333414,Vmag_get_voltage_magnitude_series__angle_get_voltage_angle_series,true
0.38,-0.008247074017477315,-0.008247074017477315,Vmag_get_voltage_magnitude_series__angle_get_voltage_angle_series,true
0.39,-0.00859790314233827,-0.00859790314233827,Vmag_get_voltage_magnitude_series__angle_get_voltage_angle_series,true
0.4,-0.008950125883918249,-0.008950125883918249,Vmag_get_voltage_magnitude_series__angle_get_voltage_angle_series,true
0.41,-0.009303162308769907,-0.009303162308769907,Vmag_get_voltage_magnitude_series__angle_get_voltage_angle_series,true
0.42,-0.009656429742805804,-0.009656429742805804,Vmag_get_voltage_magnitude_series__angle_get_voltage_angle_series,true
0.43,-0.010009345092746154,-0.010009345092746154,Vmag_get_voltage_magnitude_series__angle_get_voltage_angle_series,true
0.44,-0.010361327373004482,-0.010361327373004482,Vmag_get_voltage_magnitude_series__angle_get_voltage_angle_series,true
0.45,-0.010711800327380203,-0.010711800327380203,Vmag_get_voltage_magnitude_series__angle_get_voltage_angle_series,true
0.46,-0.011060195030732155,-0.011060195030732155,Vmag_get_voltage_magnitude_series__angle_get_voltage_angle_series,true
0.47,-0.011405952392735353,-0.011405952392735353,Vmag_get_voltage_magnitude_series__angle_get_voltage_angle_series,true
0.48,-0.011748525602925233,-0.011748525602925233,Vmag_get_voltage_magnitude_series__angle_get_voltage_angle_series,true
0.49,-0.012087382369212694,-0.012087382369212694,Vmag_get_voltage_magnitude_series__angle_get_voltage_angle_series,true
0.5,-0.012422007096821102,-0.012422007096821102,Vmag_get_voltage_magnitude_series__angle_get_voltage_angle_series,true
0.51,-0.012751902828750935,-0.012751902828750935,Vmag_get_voltage_magnitude_series__angle_get_voltage_angle_series,true
0.52,-0.013076593004119615,-0.013076593004119615,Vmag_get_voltage_magnitude_series__angle_get_voltage_angle_series,true
0.53,-0.013395622992471368,-0.013395622992471368,Vmag_get_voltage_magnitude_series__angle_get_voltage_angle_series,true
0.54,-0.01370856158827612,-0.01370856158827612,Vmag_get_voltage_magnitude_series__angle_get_voltage_angle_series,true
0.55,-0.014015002303715083,-0.014015002303715083,Vmag_get_voltage_magnitude_series__angle_get_voltage_angle_series,true
0.56,-0.01431456438890909,-0.01431456438890909,Vmag_get_voltage_magnitude_series__angle_get_voltage_angle_series,true
0.57,-0.014606893728311405,-0.014606893728311405,Vmag_get_voltage_magnitude_series__angle_get_voltage_angle_series,true
0.58,-0.01489166378451396,-0.01489166378451396,Vmag_get_voltage_magnitude_series__angle_get_voltage_angle_series,true
0.59,-0.01516857625618859,-0.01516857625618859,Vmag_get_voltage_magnitude_series__angle_get_voltage_angle_series,true
0.6,-0.015437361599157897,-0.015437361599157897,Vmag_get_voltage_magnitude_series__angle_get_voltage_angle_series,true
0.61,-0.015697779414778165,-0.015697779414778165,Vmag_get_voltage_magnitude_series__angle_get_voltage_angle_series,true
0.62,-0.01594961882599359,-0.01594961882599359,Vmag_get_voltage_magnitude_series__angle_get_voltage_angle_series,true
0.63,-0.016192698756137814,-0.016192698756137814,Vmag_get_voltage_magnitude_series__angle_get_voltage_angle_series,true
0.64,-0.01642686790357819,-0.01642686790357819,Vmag_get_voltage_magnitude_series__angle_get_voltage_angle_series,true
0.65,-0.016652004804901303,-0.016652004804901303,Vmag_get_voltage_magnitude_series__angle_get_voltage_angle_series,true
0.66,-0.01686801764513701,-0.01686801764513701,Vmag_get_voltage_magnitude_series__angle_get_voltage_angle_series,true
0.67,-0.017074844099160144,-0.017074844099160144,Vmag_get_voltage_magnitude_series__angle_get_voltage_angle_series,true
0.68,-0.01727245096796841,-0.01727245096796841,Vmag_get_voltage_magnitude_series__angle_get_voltage_angle_series,true
0.69,-0.017460833666937646,-0.017460833666937646,Vmag_get_voltage_magnitude_series__angle_get_voltage_angle_series,true
0.7,-0.017640015716721462,-0.017640015716721462,Vmag_get_voltage_magnitude_series__angle_get_voltage_angle_series,true
0.71,-0.017810048049818547,-0.017810048049818547,Vmag_get_voltage_magnitude_series__angle_get_voltage_angle_series,true
0.72,-0.0179710082551936,-0.0179710082551936,Vmag_get_voltage_magnitude_series__angle_get_voltage_angle_series,true
0.73,-0.018122999638687968,-0.018122999638687968,Vmag_get_voltage_magnitude_series__angle_get_voltage_angle_series,true
0.74,-0.018266150268929627,-0.018266150268929627,Vmag_get_voltage_magnitude_series__angle_get_voltage_angle_series,true
0.75,-0.018400611907826048,-0.018400611907826048,Vmag_get_voltage_magnitude_series__angle_get_voltage_angle_series,true
0.76,-0.01852655882593271,-0.01852655882593271,Vmag_get_voltage_magnitude_series__angle_get_voltage_angle_series,true
0.77,-0.018644186554329995,-0.018644186554329995,Vmag_get_voltage_magnitude_series__angle_get_voltage_angle_series,true
0.78,-0.018753710523518114,-0.018753710523518114,Vmag_get_voltage_magnitude_series__angle_get_voltage_angle_series,true
0.79,-0.01885536469510888,-0.01885536469510888,Vmag_get_voltage_magnitude_series__angle_get_voltage_angle_series,true
0.8,-0.018949400113073313,-0.018949400113073313,Vmag_get_voltage_magnitude_series__angle_get_voltage_angle_series,true
0.81,-0.019036083359111465,-0.019036083359111465,Vmag_get_voltage_magnitude_series__angle_get_voltage_angle_series,true
0.82,-0.019115695009357177,-0.019115695009357177,Vmag_get_voltage_magnitude_series__angle_get_voltage_angle_series,true
0.83,-0.0191885280497466,-0.0191885280497466,Vmag_get_voltage_magnitude_series__angle_get_voltage_angle_series,true
0.84,-0.01925488627705886,-0.01925488627705886,Vmag_get_voltage_magnitude_series__angle_get_voltage_angle_series,true
0.85,-0.019315082693729176,-0.019315082693729176,Vmag_get_voltage_magnitude_series__angle_get_voltage_angle_series,true
0.86,-0.01936943786323192,-0.01936943786323192,Vmag_get_voltage_magnitude_series__angle_get_voltage_angle_series,true
0.87,-0.019418278258275662,-0.019418278258275662,Vmag_get_voltage_magnitude_series__angle_get_voltage_angle_series,true
0.88,-0.019461934714557344,-0.019461934714557344,Vmag_get_voltage_magnitude_series__angle_get_voltage_angle_series,true
0.89,-0.019500740877207823,-0.019500740877207823,Vmag_get_voltage_magnitude_series__angle_get_voltage_angle_series,true
0.9,-0.019535031617040725,-0.019535031617040725,Vmag_get_voltage_magnitude_series__angle_get_voltage_angle_series,true
0.91,-0.01956514147323353,-0.01956514147323353,Vmag_get_voltage_magnitude_series__angle_get_voltage_angle_series,true
0.92,-0.019591403311449374,-0.019591403311449374,Vmag_get_voltage_magnitude_series__angle_get_voltage_angle_series,true
0.93,-0.01961414688857191,-0.01961414688857191,Vmag_get_voltage_magnitude_series__angle_get_voltage_angle_series,true
0.94,-0.019633697508263513,-0.019633697508263513,Vmag_get_voltage_magnitude_series__angle_get_voltage_angle_series,true
0.95,-0.01965037473120907,-0.01965037473120907,Vmag_get_voltage_magnitude_series__angle_get_voltage_angle_series,true
0.96,-0.019664491231997767,-0.019664491231997767,Vmag_get_voltage_magnitude_series__angle_get_voltage_angle_series,true
0.97,-0.019676351677632212,-0.019676351677632212,Vmag_get_voltage_magnitude_series__angle_get_voltage_angle_series,true
0.98,-0.01968625168063531,-0.01968625168063531,Vmag_get_voltage_magnitude_series__angle_get_voltage_angle_series,true
0.99,-0.019694476839552305,-0.019694476839552305,Vmag_get_voltage_magnitude_series__angle_get_voltage_angle_series,true
1.0,-0.01970130190048263,-0.01970130190048263,Vmag_get_voltage_magnitude_series__angle_get_voltage_angle_series,true
1.01,-0.019706989999206077,-0.019706989999206077,Vmag_get_voltage_magnitude_series__angle_get_voltage_angle_series,true
1.02,-0.019711791961368283,-0.019711791961368283,Vmag_get_voltage_magnitude_series__angle_get_voltage_angle_series,true
1.03,-0.019715945711267883,-0.019715945711267883,Vmag_get_voltage_magnitude_series__angle_get_voltage_angle_series,true
1.04,-0.019719675765819133,-0.019719675765819133,Vmag_get_voltage_magnitude_series__angle_get_voltage_angle_series,true
1.05,-0.01972319287288904,-0.01972319287288904,Vmag_get_voltage_magnitude_series__angle_get_voltage_angle_series,true
1.06,-0.01972669365764452,-0.01972669365764452,Vmag_get_voltage_magnitude_series__angle_get_voltage_angle_series,true
1.07,-0.019730360396831525,-0.019730360396831525,Vmag_get_voltage_magnitude_series__angle_get_voltage_angle_series,true
1.08,-0.019734360877182465,-0.019734360877182465,Vmag_get_voltage_magnitude_series__angle_get_voltage_angle_series,true
1.09,-0.019738848337222368,-0.019738848337222368,Vmag_get_voltage_magnitude_series__angle_get_voltage_angle_series,true
1.1,-0.019743961510011336,-0.019743961510011336,Vmag_get_voltage_magnitude_series__angle_get_voltage_angle_series,true
1.11,-0.019749824685662956,-0.019749824685662956,Vmag_get_voltage_magnitude_series__angle_get_voltage_angle_series,true
1.12,-0.01975654789793516,-0.01975654789793516,Vmag_get_voltage_magnitude_series__angle_get_voltage_angle_series,true
1.13,-0.01976422716066999,-0.01976422716066999,Vmag_get_voltage_magnitude_series__angle_get_voltage_angle_series,true
1.14,-0.019772944789790504,-0.019772944789790504,Vmag_get_voltage_magnitude_series__angle_get_voltage_angle_series,true
1.15,-0.01978276975423563,-0.01978276975423563,Vmag_get_voltage_magnitude_series__angle_get_voltage_angle_series,true
1.16,-0.019793758094319328,-0.019793758094319328,Vmag_get_voltage_magnitude_series__angle_get_voltage_angle_series,true
1.17,-0.019805953382765043,-0.019805953382765043,Vmag_get_voltage_magnitude_series__angle_get_voltage_angle_series,true
1.18,-0.019819387289114206,-0.019819387289114206,Vmag_get_voltage_magnitude_series__angle_get_voltage_angle_series,true
1.19,-0.01983408010389244,-0.01983408010389244,Vmag_get_voltage_magnitude_series__angle_get_voltage_angle_series,true
1.2,-0.019850041324175893,-0.019850041324175893,Vmag_get_voltage_magnitude_series__angle_get_voltage_angle_series,true
1.21,-0.019867270283668387,-0.019867270283668387,Vmag_get_voltage_magnitude_series__angle_get_voltage_angle_series,true
1.22,-0.01988575683581252,-0.01988575683581252,Vmag_get_voltage_magnitude_series__angle_get_voltage_angle_series,true
1.23,-0.01990548199965562,-0.01990548199965562,Vmag_get_voltage_magnitude_series__angle_get_voltage_angle_series,true
1.24,-0.01992641863587826,-0.01992641863587826,Vmag_get_voltage_magnitude_series__angle_get_voltage_angle_series,true
1.25,-0.019948532146767808,-0.019948532146767808,Vmag_get_voltage_magnitude_series__angle_get_voltage_angle_series,true
1.26,-0.019971781205080745,-0.019971781205080745,Vmag_get_voltage_magnitude_series__angle_get_voltage_angle_series,true
1.27,-0.01999611844342692,-0.01999611844342692,Vmag_get_voltage_magnitude_series__angle_get_voltage_angle_series,true
1.28,-0.02002149114967886,-0.02002149114967886,Vmag_get_voltage_magnitude_series__angle_get_voltage_angle_series,true
1.29,-0.020047841952151667,-0.020047841952151667,Vmag_get_voltage_magnitude_series__angle_get_voltage_angle_series,true
1.3,-0.020075109525647568,-0.020075109525647568,Vmag_get_voltage_magnitude_series__angle_get_voltage_angle_series,true
1.31,-0.020103229264844494,-0.020103229264844494,Vmag_get_voltage_magnitude_series__angle_get_voltage_angle_series,true
1.32,-0.020132133915405685,-0.020132133915405685,Vmag_get_voltage_magnitude_series__angle_get_voltage_angle_series,true
1.33,-0.020161754202789157,-0.020161754202789157,Vmag_get_voltage_magnitude_series__angle_get_voltage_angle_series,true
1.34,-0.020192019447844545,-0.020192019447844545,Vmag_get_voltage_magnitude_series__angle_get_voltage_angle_series,true
1.35,-0.020222858155606073,-0.020222858155606073,Vmag_get_voltage_magnitude_series__angle_get_voltage_angle_series,true
1.36,-0.020254198568153636,-0.020254198568153636,Vmag_get_voltage_magnitude_series__angle_get_voltage_angle_series,true
1.37,-0.02028596914760155,-0.02028596914760155,Vmag_get_voltage_magnitude_series__angle_get_voltage_angle_series,true
1.38,-0.02031809910478484,-0.02031809910478484,Vmag_get_voltage_magnitude_series__angle_get_voltage_angle_series,true
1.39,-0.020350518836833684,-0.020350518836833684,Vmag_get_voltage_magnitude_series__angle_get_voltage_angle_series,true
1.4,-0.02038316035407476,-0.02038316035407476,Vmag_get_voltage_magnitude_series__angle_get_voltage_angle_series,true
1.41,-0.020415957657462805,-0.020415957657462805,Vmag_get_voltage_magnitude_series__angle_get_voltage_angle_series,true
1.42,-0.02044884707477683,-0.02044884707477683,Vmag_get_voltage_magnitude_series__angle_get_voltage_angle_series,true
1.43,-0.02048176759090456,-0.02048176759090456,Vmag_get_voltage_magnitude_series__angle_get_voltage_angle_series,true
1.44,-0.02051466111135046,-0.02051466111135046,Vmag_get_voltage_magnitude_series__angle_get_voltage_angle_series,true
1.45,-0.020547472696787812,-0.020547472696787812,Vmag_get_voltage_magnitude_series__angle_get_voltage_angle_series,true
1.46,-0.02058015076186,-0.02058015076186,Vmag_get_voltage_magnitude_series__angle_get_voltage_angle_series,true
1.47,-0.02061264724154101,-0.02061264724154101,Vmag_get_voltage_magnitude_series__angle_get_voltage_angle_series,true
1.48,-0.020644917724562666,-0.020644917724562666,Vmag_get_voltage_magnitude_series__angle_get_voltage_angle_series,true
1.49,-0.020676921549467424,-0.020676921549467424,Vmag_get_voltage_magnitude_series__angle_get_voltage_angle_series,true
1.5,-0.02070862184908239,-0.02070862184908239,Vmag_get_voltage_magnitude_series__angle_get_voltage_angle_series,true
1.51,-0.0207399856009053,-0.0207399856009053,Vmag_get_voltage_magnitude_series__angle_get_voltage_angle_series,true
1.52,-0.020770983626224516,-0.020770983626224516,Vmag_get_voltage_magnitude_series__angle_get_voltage_angle_series,true
1.53,-0.020801590555900803,-0.020801590555900803,Vmag_get_voltage_magnitude_series__angle_get_voltage_angle_series,true
1.54,-0.0208317847830706,-0.0208317847830706,Vmag_get_voltage_magnitude_series__angle_get_voltage_angle_series,true
1.55,-0.020861548374423146,-0.020861548374423146,Vmag_get_voltage_magnitude_series__angle_get_voltage_angle_series,true
1.56,-0.020890866980935625,-0.020890866980935625,Vmag_get_voltage_magnitude_series__angle_get_voltage_angle_series,true
1.57,-0.020919729714184092,-0.020919729714184092,Vmag_get_voltage_magnitude_series__angle_get_voltage_angle_series,true
1.58,-0.020948129003169932,-0.020948129003169932,Vmag_get_voltage_magnitude_series__angle_get_voltage_angle_series,true
1.59,-0.020976060424946017,-0.020976060424946017,Vmag_get_voltage_magnitude_series__angle_get_voltage_angle_series,true
1.6,-0.021003522552372592,-0.021003522552372592,Vmag_get_voltage_magnitude_series__angle_get_voltage_angle_series,true
1.61,-0.021030516759593533,-0.021030516759593533,Vmag_get_voltage_magnitude_series__angle_get_voltage_angle_series,true
1.62,-0.021057047024333038,-0.021057047024333038,Vmag_get_voltage_magnitude_series__angle_get_voltage_angle_series,true
1.63,-0.02108311972257718,-0.02108311972257718,Vmag_get_voltage_magnitude_series__angle_get_voltage_angle_series,true
1.64,-0.02110874342019617,-0.02110874342019617,Vmag_get_voltage_magnitude_series__angle_get_voltage_angle_series,true
1.65,-0.021133928662125837,-0.021133928662125837,Vmag_get_voltage_magnitude_series__angle_get_voltage_angle_series,true
1.66,-0.02115868774453794,-0.02115868774453794,Vmag_get_voltage_magnitude_series__angle_get_voltage_angle_series,true
1.67,-0.021183034496821643,-0.021183034496821643,Vmag_get_voltage_magnitude_series__angle_get_voltage_angle_series,true
1.68,-0.02120698406505883,-0.02120698406505883,Vmag_get_voltage_magnitude_series__angle_get_voltage_angle_series,true
1.69,-0.02123055269685064,-0.02123055269685064,Vmag_get_voltage_magnitude_series__angle_get_voltage_angle_series,true
1.7,-0.021253757524908636,-0.021253757524908636,Vmag_get_voltage_magnitude_series__angle_get_voltage_angle_series,true
1.71,-0.021276616357359376,-0.021276616357359376,Vmag_get_voltage_magnitude_series__angle_get_voltage_angle_series,true
1.72,-0.021299147478251026,-0.021299147478251026,Vmag_get_voltage_magnitude_series__angle_get_voltage_angle_series,true
1.73,-0.02132136945719166,-0.02132136945719166,Vmag_get_voltage_magnitude_series__angle_get_voltage_angle_series,true
1.74,-0.021343300962667774,-0.021343300962667774,Vmag_get_voltage_magnitude_series__angle_get_voltage_angle_series,true
1.75,-0.021364960582398444,-0.021364960582398444,Vmag_get_voltage_magnitude_series__angle_get_voltage_angle_series,true
1.76,-0.021386366664214104,-0.021386366664214104,Vmag_get_voltage_magnitude_series__angle_get_voltage_angle_series,true
1.77,-0.021407537160551108,-0.021407537160551108,Vmag_get_voltage_magnitude_series__angle_get_voltage_angle_series,true
1.78,-0.021428489491034326,-0.021428489491034326,Vmag_get_voltage_magnitude_series__angle_get_voltage_angle_series,true
1.79,-0.021449240409607974,-0.021449240409607974,Vmag_get_voltage_magnitude_series__angle_get_voltage_angle_series,true
1.8,-0.02146980588881972,-0.02146980588881972,Vmag_get_voltage_magnitude_series__angle_get_voltage_angle_series,true
1.81,-0.02149020101936134,-0.02149020101936134,Vmag_get_voltage_magnitude_series__angle_get_voltage_angle_series,true
1.82,-0.021510439922136942,-0.021510439922136942,Vmag_get_voltage_magnitude_series__angle_get_voltage_angle_series,true
1.83,-0.02153053566883499,-0.02153053566883499,Vmag_get_voltage_magnitude_series__angle_get_voltage_angle_series,true
1.84,-0.02155050021898263,-0.02155050021898263,Vmag_get_voltage_magnitude_series__angle_get_voltage_angle_series,true
1.85,-0.021570344370569254,-0.021570344370569254,Vmag_get_voltage_magnitude_series__angle_get_voltage_angle_series,true
1.86,-0.021590077725394317,-0.021590077725394317,Vmag_get_voltage_magnitude_series__angle_get_voltage_angle_series,true
1.87,-0.021609708663589515,-0.021609708663589515,Vmag_get_voltage_magnitude_series__angle_get_voltage_angle_series,true
1.88,-0.02162924432669764,-0.02162924432669764,Vmag_get_voltage_magnitude_series__angle_get_voltage_angle_series,true
1.89,-0.02164869061801672,-0.02164869061801672,Vmag_get_voltage_magnitude_series__angle_get_voltage_angle_series,true
1.9,-0.0216680522184759,-0.0216680522184759,Vmag_get_voltage_magnitude_series__angle_get_voltage_angle_series,true
1.91,-0.02168733260215452,-0.02168733260215452,Vmag_get_voltage_magnitude_series__angle_get_voltage_angle_series,true
1.92,-0.02170653406317859,-0.02170653406317859,Vmag_get_voltage_magnitude_series__angle_get_voltage_angle_series,true
1.93,-0.02172565775634592,-0.02172565775634592,Vmag_get_voltage_magnitude_series__angle_get_voltage_angle_series,true
1.94,-0.021744703748957102,-0.021744703748957102,Vmag_get_voltage_magnitude_series__angle_get_voltage_angle_series,true
1.95,-0.02176367107113058,-0.02176367107113058,Vmag_get_voltage_magnitude_series__angle_get_voltage_angle_series,true
1.96,-0.021782557776376353,-0.021782557776376353,Vmag_get_voltage_magnitude_series__angle_get_voltage_angle_series,true
1.97,-0.021801361008104314,-0.021801361008104314,Vmag_get_voltage_magnitude_series__angle_get_voltage_angle_series,true
1.98,-0.021820077073461543,-0.021820077073461543,Vmag_get_voltage_magnitude_series__angle_get_voltage_angle_series,true
1.99,-0.021838701520684626,-0.021838701520684626,Vmag_get_voltage_magnitude_series__angle_get_voltage_angle_series,true
...
